*EXP.DETAILS: TUDU1501WH                                                             

*FILES
@N  EXP.DATA    AFILE        ADIR
  1 EXP         TUDU1501.WHA                                                                                 
@N  SPECIES     SPFILE       SPDIR
  1 SPE         WHCER048.SPE C:\DSSAT48\GENOTYPE\                                                            
@N  ECOTYPE     EFILE        EDIR
  1 ECO         WHCER048.ECO C:\DSSAT48\GENOTYPE\                                                            
@N  CULTIVAR    CFILE        CDIR
  1 CUL         WHCER048.CUL C:\DSSAT48\GENOTYPE\                                                            
@N  SOIL        SFILE        SDIR
  1 SOIL        DE.SOL                                                                                       
@N  WEATHER     WFILE        WDIR
  1 WEATH       TUDU1501.WTH                                                                                 

*SIMULATION CONTROL
@N  GENERAL     NYERS NREPS START   SDATE RSEED SNAME.................... MODEL...
  1 GE              1     1     S   15077  2150 Duernast 2015 Spring      CSCER048
@N  OPTIONS     WATER NITRO SYMBI PHOSP POTAS DISES  CHEM  TILL   CO2
  1 OP              Y     Y     N     N     N     N     N     Y     M
@N  METHODS     WTHER INCON LIGHT EVAPO INFIL PHOTO HYDRO NSWIT SOMDY MESEV MESOL METMP MEGHG
  1 ME              M     M     E     R     S     C     R     1     G     S     2     D     0
@N  MANAGEMENT  PLANT IRRIG FERTI RESID HARVS
  1 MA              R     N     R     N     M
@N  OUTPUTS     FNAME OVVEW SUMRY FROPT GROUT CAOUT WAOUT NIOUT MIOUT DIOUT  LONG CHOUT OPOUT
  1 OU              N     Y     Y     1     Y     Y     Y     Y     Y     N     Y     N     Y

!AUTOMATIC MANAGEM
@N  PLANTING      PFRST   PLAST PH2OL PH2OU PH2OD PSTMX PSTMN
  1 PL              -99     -99  -99.  -99.  -99.  -99.  -99.
@N  IRRIGATION  IMDEP ITHRL ITHRU IROFF IMETH IRAMT IREFF
  1 IR           -99.  -99.  -99.   -99   -99 -99.0 *****
@N  NITROGEN    NMDEP NMTHR NAMNT NCODE NAOFF
  1 NI           -99.  -99.  -99.   -99   -99
@N  RESIDUES    RIPCN RTIME RIDEP
  1 RE           -99.   -99  -99.
@N  HARVEST     HFRST   HLAST HPCNP HRCNR
  1 HA            -99     -99  100.    0.

*TREATMENTS
@N   R O C TNAME....................  CU  FL  SA  IC  MP  MI  MF  MR  MC  MT  ME  MH  SM
 15  1 0 0 15                          1   1   0   1   1   0   0   0   1   1   0   1   1

*CULTIVARS
@C  CR INGENO CNAME...   ECO#   P1V   P1D    P5    G1    G2    G3 PHINT
  1 WH 990015 Hartog_K TWKG01  20.0  94.0 700.0  22.0  39.0  1.00 120.0

*FIELDS
@L  ID_FIELD WSTA....  FLSA  FLOB  FLDT  FLDD  FLDS  FLST SLTX   SLDP ID_SOIL    PMALB  PMWD
  1 TUDU0001 TUDU1501   0.0  -99.   -99  -99.  100.   -99 -99    -99. DE02157980-99.00 -99.0
@L             XCRD            YCRD      ELEV              AREA  SLEN  FLWR  SLAS PRMGT
  1        11.69053        48.40339    470.60               1.0  100.   1.0 -99.0   -99   -99

*INITIAL CONDITIONS
@C  PCR     ICDAT  ICRT  ICND  ICRN  ICRE  ICWD ICRES ICREN ICREP ICRIP ICRID
  1 WH      15070  1200     0  1.00  1.00 -99.0  1000  0.80  0.00  100.   15.
@C   ICBL  SH2O  SNH4  SNO3
  1    5. 0.236   1.0   2.0
  1   15. 0.247   0.8   1.5
  1   30. 0.262   0.6   1.2
  1   45. 0.276   0.4   1.0
  1   60. 0.276   0.4   1.0
  1   80. 0.274   0.3   0.8
  1  100. 0.274   0.3   0.8
  1  150. 0.262   0.2   0.5
  1  200. 0.262   0.2   0.5

*PLANTING DETAILS
@P    PDATE   EDATE  PPOP  PPOE  PLME  PLDS  PLRS  PLRD  PLDP  PLWT  PAGE  PENV  PLPH  SPRL
  1   15077     -99 375.0 375.0     S     R   12.    0.   2.5  -99.  -99. -99.0 -99.0   0.0

*IRRIGATION
@I   IEFF  IDEP  ITHR  IEPT  IOFF  IAME  IAMT
  0 1.000    0.    0.    0. GS000 IR001   0.0
@I    IDATE  IROP IRVAL

*FERTILIZERS
@F    FDATE  FMCD  FACD  FDEP  FAMN  FAMP  FAMK  FAMC  FAMO  FOCD

*RESIDUES
@R    RDATE  RCOD  RAMT  RESN  RESP  RESK  RINP  RDEP  RMET

*CHEMICALS
@C    CDATE CHCOD CHAMT  CHME CHDEP   CHT

*TILLAGE
@T    TDATE TIMPL  TDEP
  1   15077 TI019  10.0

*ENVIRONMENT
@E    ODATE  EDAY  ERAD  EMAX  EMIN ERAIN  ECO2  EDEW EWIND

*HARVEST
@H    HDATE  HSTG  HCOM HSIZE   HPC  HBPC
  1   15237   -99   -99   -99  100.    0.
