*MODEL INPUT FILE            A    15     1    15    15     0
*FILES              
MODEL          CSCER048
FILEX          TUDU1501.WHX                                                                                 
FILEA          TUDU1501.WHA                                                                                 
FILET          TUDU1501.WHT                                                                                 
SPECIES        WHCER048.SPE C:\DSSAT48\GENOTYPE\                                                            
ECOTYPE        WHCER048.ECO C:\DSSAT48\GENOTYPE\                                                            
CULTIVAR       WHCER048.CUL C:\DSSAT48\GENOTYPE\                                                            
PESTS          WHCER048.PST C:\DSSAT48\PEST\                                                                
SOILS          DE.SOL                                                                                       
WEATHERW       TUDU1501.WTH                                                                                 
OUTPUT         OVERVIEW
*SIMULATION CONTROL 
                   1     1     S   15077  2150 Duernast 2015 Spring     
                   Y     Y     N     N     N     N     N     Y     M
                   M     M     E     R     S     C     R     1     G     S     2     D     0
                   R     N     R     N     M
                   N     Y     Y     1     Y     Y     Y     Y     Y     N     Y     N     Y
!AUTOMATIC MANAGEM  
                   -99     -99  -99.  -99.  -99.  -99.  -99.
                -99.  -99.  -99.   -99   -99 -99.0 *****
                -99.  -99.  -99.   -99   -99
                -99.   -99  -99.
                   -99     -99  100.    0.
*EXP.DETAILS        
  1TUDU1501 WH                                                             
*TREATMENTS         
 15 1 0 0 15                       
*CULTIVARS          
   WH 990015 Hartog_KY       
*FIELDS             
   TUDU0001 TUDU1501   0.0  -99.   -99  -99. 100.0   -99 -99    -99. DE02157980-99.00 -99.0
     11.6905317307   48.4033851624   470.600               1.0  100.   1.0 -99.0   -99   -99
*INITIAL CONDITIONS 
   WH      15070  1200     0  1.00  1.00 -99.0  1000  0.80  0.00  100.   15.
      5. 0.236  1.00  2.00
     15. 0.247 0.800  1.50
     30. 0.262 0.600  1.20
     45. 0.276 0.400  1.00
     60. 0.276 0.400  1.00
     80. 0.274 0.300 0.800
    100. 0.274 0.300 0.800
    150. 0.262 0.200 0.500
    200. 0.262 0.200 0.500
*PLANTING DETAILS   
     15077     -99 375.0 375.0     S     R   12.    0.   2.5  -99.  -99. -99.0 -99.0   0.0
*IRRIGATION         
   1.000    0.    0.    0. GS000 IR001   0.0
*FERTILIZERS        
*RESIDUES           
*CHEMICALS          
*TILLAGE            
     15077 TI019  10.0
*ENVIRONMENT        
*HARVEST            
     15237   -99   -99   -99  100.    0.
*SOIL               
 DE02157980  DEU         -99    -99. -99                                               
 -99         DE           48.375  11.708 -99                                               
 BK     0.10   6.0  0.50   75.  1.00  1.00 SA001 SA001 SA001 -99  
    5.       0.108 0.236 0.391 1.000  1.06  1.29 3.190  17.7  40.0 -99.0 0.120  6.20-99.00 21.20-99.00
   15.       0.118 0.247 0.394 0.850 0.900  1.31 2.700  19.4  39.2 -99.0 0.090  6.28-99.00 18.50-99.00
   30.       0.133 0.262 0.399 0.700 0.710  1.34 2.060  21.9  38.0 -99.0 0.070  6.37-99.00 18.00-99.00
   45.       0.147 0.276 0.403 0.500 0.570  1.39 1.320  24.3  36.8 -99.0 0.060  6.48-99.00 18.90-99.00
   60.       0.147 0.276 0.403 0.500 0.570  1.39 1.320  24.3  36.8 -99.0 0.060  6.48-99.00 18.90-99.00
   80.       0.146 0.274 0.402 0.380 0.580  1.45 0.770  24.1  36.2 -99.0 0.050  6.62-99.00 19.00-99.00
  100.       0.146 0.274 0.402 0.380 0.580  1.45 0.770  24.1  36.2 -99.0 0.050  6.62-99.00 19.00-99.00
  150.       0.136 0.262 0.398 0.050 0.700  1.51 0.440  22.5  35.9 -99.0 0.050  6.80-99.00 18.90-99.00
  200.       0.136 0.262 0.398 0.050 0.700  1.51 0.440  22.5  35.9 -99.0 0.050  6.80-99.00 18.90-99.00
                    
    5.-99.00 -99.0 -99.0 -99.0 -99.0 -99.0 -99.0 -99.0 -99.0 -99.0-99.00 -99.0 -99.0 -99.0 -99.0 -99.0  -99.  -99.
   15.-99.00 -99.0 -99.0 -99.0 -99.0 -99.0 -99.0 -99.0 -99.0 -99.0-99.00 -99.0 -99.0 -99.0 -99.0 -99.0  -99.  -99.
   30.-99.00 -99.0 -99.0 -99.0 -99.0 -99.0 -99.0 -99.0 -99.0 -99.0-99.00 -99.0 -99.0 -99.0 -99.0 -99.0  -99.  -99.
   45.-99.00 -99.0 -99.0 -99.0 -99.0 -99.0 -99.0 -99.0 -99.0 -99.0-99.00 -99.0 -99.0 -99.0 -99.0 -99.0  -99.  -99.
   60.-99.00 -99.0 -99.0 -99.0 -99.0 -99.0 -99.0 -99.0 -99.0 -99.0-99.00 -99.0 -99.0 -99.0 -99.0 -99.0  -99.  -99.
   80.-99.00 -99.0 -99.0 -99.0 -99.0 -99.0 -99.0 -99.0 -99.0 -99.0-99.00 -99.0 -99.0 -99.0 -99.0 -99.0  -99.  -99.
  100.-99.00 -99.0 -99.0 -99.0 -99.0 -99.0 -99.0 -99.0 -99.0 -99.0-99.00 -99.0 -99.0 -99.0 -99.0 -99.0  -99.  -99.
  150.-99.00 -99.0 -99.0 -99.0 -99.0 -99.0 -99.0 -99.0 -99.0 -99.0-99.00 -99.0 -99.0 -99.0 -99.0 -99.0  -99.  -99.
  200.-99.00 -99.0 -99.0 -99.0 -99.0 -99.0 -99.0 -99.0 -99.0 -99.0-99.00 -99.0 -99.0 -99.0 -99.0 -99.0  -99.  -99.
                    
    5.-99.00-99.00-99.00-99.00
   15.-99.00-99.00-99.00-99.00
   30.-99.00-99.00-99.00-99.00
   45.-99.00-99.00-99.00-99.00
   60.-99.00-99.00-99.00-99.00
   80.-99.00-99.00-99.00-99.00
  100.-99.00-99.00-99.00-99.00
  150.-99.00-99.00-99.00-99.00
  200.-99.00-99.00-99.00-99.00
*CULTIVAR           
